Version 4
SHEET 1 880 680
WIRE -416 -96 -416 -128
WIRE 400 -48 400 -128
WIRE -288 0 -288 -128
WIRE -64 0 -64 -128
WIRE -416 16 -416 -16
WIRE -416 16 -544 16
WIRE -336 16 -416 16
WIRE -288 112 -288 96
WIRE -64 112 -64 64
WIRE -64 112 -288 112
WIRE 64 112 -64 112
WIRE 176 112 144 112
WIRE 256 112 176 112
WIRE 400 112 400 32
WIRE 400 112 336 112
WIRE -544 128 -544 16
WIRE 400 160 400 112
WIRE 592 160 592 128
WIRE 96 176 96 160
WIRE 176 176 176 112
WIRE 176 176 96 176
WIRE -544 272 -544 208
WIRE 400 272 400 224
WIRE 592 272 592 240
FLAG -288 -128 vcc
FLAG 400 -128 vcc
FLAG 592 128 vcc
FLAG 400 272 0
FLAG -544 272 0
FLAG 592 272 0
FLAG -416 -128 vcc
FLAG -64 -128 vcc
SYMBOL LED 384 160 R0
SYMATTR InstName D1
SYMBOL res 384 -64 R0
SYMATTR InstName R1
SYMATTR Value 220
SYMBOL res 352 96 R90
WINDOW 0 0 56 VBottom 2
WINDOW 3 32 56 VTop 2
SYMATTR InstName R2
SYMATTR Value 220
SYMBOL res -432 -112 R0
SYMATTR InstName R3
SYMATTR Value 10k
SYMBOL voltage -544 112 M0
WINDOW 123 0 0 Left 2
WINDOW 39 0 0 Left 2
SYMATTR InstName V1
SYMATTR Value PULSE(0 5 10u 1n 1n 20u 40u)
SYMBOL voltage 592 144 R0
WINDOW 123 0 0 Left 2
WINDOW 39 0 0 Left 2
SYMATTR InstName V2
SYMATTR Value 5V
SYMBOL schottky -48 64 R180
WINDOW 0 24 64 Left 2
WINDOW 3 24 0 Left 2
SYMATTR InstName D3
SYMATTR Value B520C
SYMATTR Description Diode
SYMATTR Type diode
SYMBOL potentiometer 160 96 R90
SYMATTR InstName U1
SYMATTR Value Rtot=1k wiper=0.5
SYMBOL pmos -336 96 M180
SYMATTR InstName M1
TEXT -912 296 Left 2 !.tran 120u
TEXT -920 328 Left 2 !.inc potentiometer.sub
TEXT -48 -64 Left 2 ;Dioda zabezpieczajaca\nprzed szpilkami powstajacymi\nprzy przelaczaniu tranzystora
TEXT -432 136 Left 2 ;PMOS jako klucz.\nPowinien byc tzw. logic level.\nUwaga! 0V na bramce daje \nwysoki stan na wyjsciu i na odwrot
TEXT -824 -96 Left 2 ;Rezystor przyspieszajacy\nrozladowanie bramki tranzystora\npo przelaczeniu na stan niski
TEXT 88 216 Left 2 ;Potencjometr pozwalajacy\nregulowac glebokosc\n modulacji
TEXT 472 -32 Left 2 ;Rezystor ustalajacy \nstaloprodowy punkt \npracy diody
